Version 4.1
SHEET 1 2428 7372
WIRE -624 -80 -1024 -80
WIRE -160 -80 -256 -80
WIRE 128 -80 -160 -80
WIRE -624 -48 -624 -80
WIRE -496 -48 -624 -48
WIRE 128 -32 128 -80
WIRE -624 -16 -624 -48
WIRE -256 -16 -256 -80
WIRE -624 32 -688 32
WIRE -176 32 -256 32
WIRE -1024 48 -1024 -80
WIRE -496 64 -496 -48
WIRE -496 64 -576 64
WIRE -400 64 -496 64
WIRE -304 64 -400 64
WIRE -624 112 -624 80
WIRE -576 112 -624 112
WIRE -560 112 -576 112
WIRE -304 112 -336 112
WIRE -256 112 -256 80
WIRE -256 112 -304 112
WIRE -624 128 -624 112
WIRE -256 128 -256 112
WIRE -1024 208 -1024 128
WIRE 128 224 128 48
WIRE -688 256 -688 32
WIRE -624 256 -624 208
WIRE -624 256 -688 256
WIRE -256 256 -256 208
WIRE -176 256 -176 32
WIRE -176 256 -256 256
WIRE -624 304 -624 256
WIRE -256 304 -256 256
WIRE -32 432 -80 432
WIRE 16 432 -32 432
WIRE -80 464 -80 432
WIRE -176 480 -224 480
WIRE -128 480 -176 480
WIRE -176 528 -224 528
WIRE -128 528 -176 528
WIRE -80 592 -80 544
FLAG -256 304 0
FLAG -624 304 0
FLAG 128 224 0
FLAG -1024 208 0
FLAG -400 64 vg
FLAG -160 -80 vd
FLAG -576 112 vs2
FLAG -304 112 vs
FLAG -80 592 0
FLAG -32 432 vds
FLAG -176 480 vd
FLAG -176 528 vs
SYMBOL voltage -256 112 R0
SYMATTR InstName VS1
SYMATTR Value {Vsb_op}
SYMBOL nmos4 -304 -16 R0
WINDOW 123 56 100 Left 2
SYMATTR Value2 l={L_op} w={W_op} m=1
SYMATTR InstName M1
SYMATTR Value N_180
SYMBOL nmos4 -576 -16 M0
WINDOW 123 56 100 Left 2
SYMATTR Value2 l={L_op} w={W_op} m=1
SYMATTR InstName M2
SYMATTR Value N_180
SYMBOL current -1024 128 R180
WINDOW 0 24 80 Left 2
WINDOW 3 19 -7 Left 2
SYMATTR InstName I1
SYMATTR Value {Ibias_op}
SYMBOL voltage -624 112 R0
SYMATTR InstName VS2
SYMATTR Value {Vsb_op}
SYMBOL voltage 128 -48 R0
SYMATTR InstName VDD
SYMATTR Value {Vdd_op}
SYMBOL e -80 448 R0
SYMATTR InstName E1
SYMATTR Value 1
TEXT 464 -56 Left 2 !.options plotwinsize=0 numdgt=15 measdgt=15\n.options logopinfo\n \n.dc VDD {Vmin} {Vmax} {Vstep}\n \n.param Imin=25u Imax=50u\n.param Vmin=0 Vmax=3 Vstep=10m\n.param Vdd_op=3.3 Ibias_op={0.5*(Imin+Imax)}\n.param W_op=10u\n.param L_op=0.30u\n.param Vsb_op=0
TEXT 96 432 Left 2 ;;plot I(VS1) vs. vds (i.e., the sweep variable, VDD)\n;for each L_op={0.3u, 0.5u, 1u, 1.5u, 2u}
TEXT 1168 -176 Left 2 !* 0.35um NMOS typical TSMC   0.35um 3.3v/5v N_350t_tsmc\n.model  N_180  nmos  level = 8\n            \n+ version=3.1                       binunit=1.0000e+00        mobmod=1\n \n+ capmod=2                  nqsmod=0.0000e+00         \n \n+ tox=7.7e-9                                          toxm=4.2000e-09\n \n+ xj=1e-7                   nch=2.2e17                rsh=80\n \n+ ngate=1.0000e+23          vth0=0.4739035\n \n+ k1=0.5980711              k2=2.129508e-4            k3=89.1316051\n \n+ k3b=-8.9451617            w0=3.267588e-5            nlx=2.389619e-7\n \n+ dvt0=3.090362             dvt1=0.7427518            dvt2=-0.1500347\n \n+ dvt0w=0                   dvt1w=0                   dvt2w=0\n \n+ lint=0                    wint=1.45681e-7           dwg=-5.436366e-9\n \n+ dwb=4.655955e-9           u0=385.646076\n \n+ ua=-4.6434e-10            ub=2.099304e-18           uc=3.944494e-11\n \n+ vsat=1.584114e5           a0=1.1776486              ags=0.1836559\n \n+ b0=7.523723e-7            b1=5e-6                   keta=2.991409e-3\n \n+ a1=0                      a2=0.4259175              voff=-0.0938652\n \n+ nfactor=1.3714105         cit=0                     cdsc=2.4e-4\n \n+ cdscd=0                   cdscb=0                   eta0=0.9911705\n \n+ etab=0.0151948            dsub=0.8661705            pclm=1.6432607\n \n+ pdiblc1=1.509754e-3       pdiblc2=1.479156e-3       pdiblcb=0.1\n \n+ drout=0                   pscbe1=7.204688E8         pscbe2=6.67778e-4\n \n+ pvag=0                    rdsw=1.060209e3           prwg=-0.0949099\n \n+ prwb=-0.0949472           wr=1                      alpha0=0.0000e+00\n \n+ alpha1=0.0000e+00         beta0=3.0000e+01          xpart=0.5\n \n+ cgso=3.1e-10                     \n \n+ cgdo=3.1e-10                                        cgbo=1e-12\n \n+ cgsl=0.0000e+00           cgdl=0.0000e+00           ckappa=6.0000e-01\n \n+ cf=0                      clc=1.0000e-07            cle=6.0000e-01\n \n+ dlc=2.9000e-08            dwc=0.0000e+00            vfbcv=-1.0000e+00\n \n+ noff=1.0000e+00           voffcv=0.0000e+00         acde=1.0000e+00\n \n+ moin=1.5000e+01           lmin=1.8000e-07           lmax=5.0000e-05\n \n+ wmin=2.4000e-07           wmax=1.0000e-04           \n \n+ xl=-5e-8                   \n \n+ xw=1.5e-7                                           js=1.0000e-06\n \n+ jsw=7.0000e-11            cj=9.161291e-4\n \n+ mj=0.3472772              pb=0.8             \n \n+ cjsw=3.326018e-10                                   mjsw=0.1126914\n \n+ tnom=27                   ute=-1.5                  kt1=-0.11\n \n+ kt1l=0                    kt2=0.022                 ua1=4.31e-9\n \n+ ub1=-7.61e-18             uc1=-5.6e-11              at=3.3e4\n \n+ prt=0                     xti=3.0000e+00            wl=0\n \n+ wln=1                     ww=0                      wwn=1\n \n+ wwl=0                     ll=0                      lln=1\n \n+ lw=0                      lwn=1                     lwl=0\n \n+ llc=-2.1400e-15           lwc=0.0000e+00            lwlc=0.0000e+00\n \n+ wlc=0.0000e+00            wwc=0.0000e+00            wwlc=0.0000e+00\n \n+ lvth0= - 1.0000e-03                \n \n+ wvth0=6.027e-02                                     pvth0=-0.0227383\n \n+ lnlx=-2.8540e-08          wnlx=0.0000e+00           pnlx=0.0000e+00\n \n+ wua=-1.8800e-11           wu0=5.4000e-01\n \n+ pub=3.8000e-20            pw0=1.3000e-09            wrdsw=0.0000e+00\n \n+ weta0=0.0000e+00          wetab=0.0000e+00          leta0=1.5740e-03\n \n+ letab=0.0000e+00          peta0=0.0000e+00          petab=0.0000e+00\n \n+ wpclm=0.0000e+00          wvoff=-4.0780e-04         lvoff=-4.2080e-03\n \n+ pvoff=-3.7880e-04         wa0=-4.7310e-02           la0=-4.6670e-01\n \n+ pa0=-2.6490e-02           wags=4.2420e-03           lags=3.0280e-01\n \n+ pags=0.0000e+00           wketa=-1.530315e-3        lketa=-7.775726e-4\n \n+ pketa=0.0000e+00          wute=6.3730e-02           lute=0.0000e+00\n \n+ pute=0.0000e+00           wvsat=5.0660e+03          lvsat=0.0000e+00\n \n+ pvsat=0.0000e+00                                    lpdiblc2=-4.7520e-03\n \n+ wat=7.0670e+03            wprt=0.0000e+00           ldif=8.0000e-08\n \n+ hdif=2.6000e-07           n=1.0000e+00              pbsw=0.8\n \n+ cjswg=1.82e-10                                      ctp=9.1400e-04\n \n+ ptp=9.2400e-04            cta=9.1900e-04            pta=1.5800e-03\n \n+ elm=5.0000e+00            tlevc=1.0000e+00          \n \n+ noimod=2.0e+00                                noia=1.3182567385564e+19                        noib=144543.977074592\n \n+ noic=-1.24515784572817e-12    ef=0.92                                                                         em=41000000\n \n\n \n\n* 0.35um PMOS typical TSMC   0.35um 3.3v/5v P_350t_tsmc\n* removed from line starting with rd=0.0000e+00: rsc=0.0000e+00            rdc=0.0000e+00\n.model  P_180  pmos  level = 8\n \n\n+ version=3.1000e+00 mobmod=1.0000e+00             capmod=2.0000e+00\n \n+ binunit=1.0000e+00        nqsmod=0.0000e+00         \n \n+ tox=7.7e-9                                          toxm=4.2000e-09\n \n+ xj=1e-7                   nch=8.52e+16              ngate=1.0000e+23\n \n+ vth0= -0.7163484                                    k1=0.408893\n \n+ k2=-4.658963e-3           k3=83.7384608             k3b=-5\n \n+ w0=6.344557e-6            nlx=2.240363e-7           dvt0=1.6210073\n \n+ dvt1=0.5540586            dvt2=4.208854e-4          dvt0w=0\n \n+ dvt1w=0                   dvt2w=0                   lint=0\n \n+ wint=1.472296E-7          dwg=-1.708734e-8          dwb=9.651369e-9\n \n+ u0=152.1750181                                      ua=1.104005e-10\n \n+ ub=1.869373e-18           uc=-1.72527e-11           vsat=1.303949e+5\n \n+ a0=1.0511452              ags=0.3481503             b0=2.548932E-6\n \n+ b1=5e-6                   keta=-6.220316e-3         a1=1.304949e-4\n \n+ a2=1.0000e+00             voff=-0.1353734           nfactor=1.8615508\n \n+ cit=0                     cdsc=2.4e-4               cdscd=0\n \n+ cdscb=0                   eta0=0.0402356            etab=3.101076E-3\n \n+ dsub=0.4414883            pclm=4.0879121            pdiblc1=1.7464E-4\n \n+ pdiblc2=7.295654E-3       pdiblcb=0.049958          drout=9.989502e-4\n \n+ pscbe1=7.963794e+10       pscbe2=5e-10              pvag=4.3044365\n \n+ rdsw=4e+3                 prwg=-0.1517701           prwb=0.0807754\n \n+ alpha0=0.0000e+00         alpha1=0.0000e+00         beta0=3.0000e+01\n \n+ cgdo=3.38e-10                                       cgbo=1e-12\n \n+ cgso=3.38e-10                                       xpart=0.5\n \n+ cf=0                      dlc=5.6000e-08            cgsl=0.0000e+00\n \n+ cgdl=0.0000e+00           ckappa=6.0000e-01         clc=1.0000e-07\n \n+ cle=6.0000e-01            dwc=0.0000e+00            vfbcv=-1.0000e+00\n \n+ noff=1.0000e+00           voffcv=0.0000e+00         acde=1.0000e+00\n \n+ moin=1.5000e+01           lmin=1.8000e-07           lmax=5.0000e-05\n \n+ wmin=2.4000e-07           wmax=1.0000e-04           \n \n+ xl= -5e-8                   \n \n+ xw=1.5E-7                                           js=3.0000e-06\n \n+ jsw=4.1200e-11                                      cj=1.413045e-3\n \n+ mj=0.5610227              pb=0.99             \n \n+ cjsw=2.971607e-10                                   mjsw=0.38282\n \n+ tnom=2.7000e+01           ute=-1.5                  kt1=-0.11\n \n+ kt1l=0                    kt2=0.022                 ua1=4.31e-9\n \n+ ub1=-7.61e-18             uc1=-5.6e-11              at=3.3e+4\n \n+ prt=0.0000e+00            xti=3.0000e+00            ww=0\n \n+ lw=0                      ll=0                      wl=0.0000e+00\n \n+ wln=1.0000e+00            wwn=1.0000e+00            wwl=0.0000e+00\n \n+ lln=1.0000e+00            lwn=1.0000e+00            lwl=0.0000e+00\n \n+ llc=-7.4500e-15           lwc=0.0000e+00            lwlc=0.0000e+00\n \n+ wlc=0.0000e+00            wwc=0.0000e+00            wwlc=0.0000e+00\n \n+ lvth0=4.4000e-03                   \n \n+ wvth0= - 1.4800e-02                \n \n+ pvth0=7.40325e-3                                    lnlx=-1.5840e-08\n \n+ wrdsw=1.0070e+01          weta0=0.0000e+00          wetab=0.0000e+00\n \n+ wpclm=0.0000e+00          wua=2.6300e-09            lua=-8.1530e-11\n \n+ pua=5.8550e-11            wub=0.0000e+00            lub=0.0000e+00\n \n+ pub=0.0000e+00            wuc=0.0000e+00            luc=0.0000e+00\n \n+ puc=0.0000e+00            wvoff=-9.8160e-03         lvoff=-9.8710e-04\n \n+ pvoff=-9.8330e-05         wa0=-4.8070e-02           la0=-2.8100e-01\n \n+ pa0=8.6610e-02            wags=-4.1770e-02          lags=4.4540e-02\n \n+ pags=-4.0760e-02          wketa=1.675253e-3         lketa=-3.463411e-3\n \n+ pketa=0.0000e+00          wute=-2.6820e-01          lute=0.0000e+00\n \n+ pute=0.0000e+00           wvsat=-1.4200e+04         lvsat=0.0000e+00\n \n+ pvsat= - 4.3400e+02                                 lpdiblc2=3.0120e-03\n \n+ cjswg= 4.42E-11                                     wat=-6.4050e+03\n \n+ wprt=2.1660e+02           n=1.0000e+00              pbsw=0.99\n \n+ cta=1.0000e-03            ctp=7.5300e-04            pta=1.5500e-03\n \n+ ptp=1.2400e-03            ldif=8.0000e-08           rsh=148.4\n \n+ rd=0.0000e+00             \n+ hdif=2.6000e-07           rs=0.0000e+00             \n \n+ noimod=2.0e+00                                noia=3.57456993317604e+18                       noib=2500\n \n+
TEXT 472 296 Left 2 !.meas dc vs find v(vs) AT={Vmin}
