Version 4.1
SHEET 1 13472 2648
WIRE -96 -3088 -96 -3168
WIRE -32 -3088 -96 -3088
WIRE 32 -3088 -32 -3088
WIRE 592 -3088 544 -3088
WIRE 656 -3088 656 -3168
WIRE 656 -3088 592 -3088
WIRE 928 -3024 864 -3024
WIRE 10896 -3024 10816 -3024
WIRE 11008 -3024 10896 -3024
WIRE 656 -3008 656 -3088
WIRE 512 -2960 432 -2960
WIRE 656 -2960 512 -2960
WIRE 816 -2928 704 -2928
WIRE 928 -2928 928 -3024
WIRE 928 -2928 816 -2928
WIRE -96 -2864 -96 -3088
WIRE 48 -2816 -96 -2816
WIRE 128 -2816 48 -2816
WIRE -256 -2784 -320 -2784
WIRE -144 -2784 -256 -2784
WIRE 11008 -2704 11008 -3024
WIRE 11104 -2704 11008 -2704
WIRE -96 -2672 -96 -2768
WIRE 192 -2672 -96 -2672
WIRE 272 -2672 192 -2672
WIRE 656 -2672 656 -2912
WIRE 656 -2672 272 -2672
WIRE 11008 -2608 11008 -2704
WIRE 10864 -2592 10784 -2592
WIRE 10960 -2592 10864 -2592
WIRE 11104 -2560 11104 -2704
WIRE 11104 -2560 11008 -2560
WIRE 10784 -2432 10784 -2592
WIRE 11008 -2432 11008 -2512
WIRE 11008 -2432 10784 -2432
WIRE 5728 -2416 5664 -2416
WIRE 5792 -2416 5728 -2416
WIRE 5520 -2256 5456 -2256
WIRE 5616 -2256 5520 -2256
WIRE 5664 -2256 5664 -2416
WIRE 5792 -2256 5712 -2256
WIRE 5856 -2256 5792 -2256
WIRE 6336 -2256 6256 -2256
WIRE 6416 -2256 6336 -2256
WIRE 6576 -2256 6480 -2256
WIRE 6640 -2256 6576 -2256
WIRE 11008 -2208 11008 -2432
WIRE 11152 -2192 11056 -2192
WIRE 11232 -2192 11152 -2192
WIRE 10816 -2160 10752 -2160
WIRE 11008 -2160 10816 -2160
WIRE 192 -2128 192 -2672
WIRE 5632 -2096 5632 -2208
WIRE 5680 -2096 5632 -2096
WIRE 5728 -2096 5680 -2096
WIRE 256 -2080 192 -2080
WIRE 64 -2048 16 -2048
WIRE 144 -2048 64 -2048
WIRE -2480 -2032 -2880 -2032
WIRE 11008 -2032 11008 -2112
WIRE 11232 -2032 11232 -2192
WIRE 11232 -2032 11008 -2032
WIRE 6048 -2016 5984 -2016
WIRE 6144 -2016 6048 -2016
WIRE 6304 -2016 6224 -2016
WIRE 6352 -2016 6304 -2016
WIRE 192 -1968 192 -2032
WIRE 256 -1968 256 -2080
WIRE 256 -1968 192 -1968
WIRE 80 -1952 16 -1952
WIRE 192 -1952 192 -1968
WIRE 192 -1952 80 -1952
WIRE -3008 -1840 -3296 -1840
WIRE -2880 -1840 -2880 -2032
WIRE -2880 -1840 -3008 -1840
WIRE -2704 -1840 -2880 -1840
WIRE 2880 -1808 2832 -1808
WIRE 3056 -1808 2880 -1808
WIRE 3232 -1808 3056 -1808
WIRE 3280 -1808 3232 -1808
WIRE 11008 -1792 11008 -2032
WIRE -3296 -1776 -3296 -1840
WIRE -3296 -1776 -3344 -1776
WIRE -2704 -1776 -2704 -1840
WIRE -2656 -1776 -2704 -1776
WIRE 2880 -1760 2880 -1808
WIRE 3232 -1760 3232 -1808
WIRE 3120 -1744 2928 -1744
WIRE 3184 -1744 3120 -1744
WIRE 11072 -1744 11008 -1744
WIRE -3296 -1728 -3296 -1776
WIRE -2704 -1728 -2704 -1776
WIRE -3104 -1712 -3248 -1712
WIRE -2832 -1712 -2960 -1712
WIRE -2752 -1712 -2832 -1712
WIRE 2832 -1712 2832 -1808
WIRE 2880 -1712 2832 -1712
WIRE 3280 -1712 3280 -1808
WIRE 3280 -1712 3232 -1712
WIRE 10880 -1712 10832 -1712
WIRE 10960 -1712 10880 -1712
WIRE -3344 -1680 -3344 -1776
WIRE -3296 -1680 -3344 -1680
WIRE -2656 -1680 -2656 -1776
WIRE -2656 -1680 -2704 -1680
WIRE 5840 -1680 5728 -1680
WIRE 5968 -1680 5840 -1680
WIRE 2880 -1584 2880 -1664
WIRE 2928 -1584 2880 -1584
WIRE 2960 -1584 2928 -1584
WIRE 3184 -1584 3152 -1584
WIRE 3232 -1584 3232 -1664
WIRE 3232 -1584 3184 -1584
WIRE 5968 -1584 5968 -1680
WIRE 6048 -1584 5968 -1584
WIRE 11008 -1568 11008 -1696
WIRE -2752 -1536 -2784 -1536
WIRE -2704 -1536 -2704 -1632
WIRE -2704 -1536 -2752 -1536
WIRE 5968 -1536 5968 -1584
WIRE 5824 -1520 5728 -1520
WIRE 5920 -1520 5824 -1520
WIRE 11072 -1520 11072 -1744
WIRE 11072 -1520 11008 -1520
WIRE 2880 -1488 2880 -1584
WIRE 3232 -1488 3232 -1584
WIRE 6048 -1488 6048 -1584
WIRE 6048 -1488 5968 -1488
WIRE 10880 -1488 10832 -1488
WIRE 10960 -1488 10880 -1488
WIRE 3136 -1472 2928 -1472
WIRE 3184 -1472 3136 -1472
WIRE -3296 -1456 -3296 -1632
WIRE -2704 -1456 -2704 -1536
WIRE -3104 -1440 -3104 -1712
WIRE -3104 -1440 -3248 -1440
WIRE -2816 -1440 -2880 -1440
WIRE -2752 -1440 -2816 -1440
WIRE 2832 -1440 2832 -1712
WIRE 2880 -1440 2832 -1440
WIRE 3280 -1440 3280 -1712
WIRE 3280 -1440 3232 -1440
WIRE -3344 -1408 -3344 -1680
WIRE -3296 -1408 -3344 -1408
WIRE -2656 -1408 -2656 -1680
WIRE -2656 -1408 -2704 -1408
WIRE 11008 -1408 11008 -1472
WIRE 11072 -1408 11072 -1520
WIRE 11072 -1408 11008 -1408
WIRE 10896 -1392 10816 -1392
WIRE 11008 -1392 11008 -1408
WIRE 11008 -1392 10896 -1392
WIRE 3232 -1264 3232 -1392
WIRE 3552 -1264 3232 -1264
WIRE 3648 -1264 3552 -1264
WIRE 5968 -1264 5968 -1440
WIRE 6144 -1264 5968 -1264
WIRE 6304 -1264 6144 -1264
WIRE -3296 -1216 -3296 -1360
WIRE -3200 -1216 -3296 -1216
WIRE -3104 -1216 -3104 -1440
WIRE -3104 -1216 -3200 -1216
WIRE -2960 -1216 -2960 -1712
WIRE -2704 -1216 -2704 -1360
WIRE -2704 -1216 -2960 -1216
WIRE 3232 -1216 3232 -1264
WIRE 3232 -1216 3072 -1216
WIRE 3392 -1216 3232 -1216
WIRE 3072 -1136 3072 -1216
WIRE -3296 -1120 -3296 -1216
WIRE -2704 -1120 -2704 -1216
WIRE 2960 -1120 2912 -1120
WIRE 3024 -1120 2960 -1120
WIRE 3248 -1088 3072 -1088
WIRE 3312 -1088 3248 -1088
WIRE -3296 -992 -3296 -1040
WIRE -3008 -992 -3296 -992
WIRE -2704 -992 -2704 -1040
WIRE -2704 -992 -3008 -992
WIRE 3392 -960 3392 -1216
WIRE 3232 -912 3184 -912
WIRE 3392 -912 3232 -912
WIRE 10912 -912 10816 -912
WIRE 11008 -912 10912 -912
WIRE 3504 -880 3440 -880
WIRE 3552 -880 3504 -880
WIRE 11008 -848 11008 -912
WIRE 11056 -848 11008 -848
WIRE 6160 -832 5968 -832
WIRE 6304 -832 6160 -832
WIRE 11008 -800 11008 -848
WIRE 2880 -784 2880 -1392
WIRE 2944 -784 2880 -784
WIRE 2992 -784 2944 -784
WIRE 3072 -784 3072 -1040
WIRE 3232 -784 3072 -784
WIRE 3392 -784 3392 -864
WIRE 3392 -784 3232 -784
WIRE 10880 -784 10832 -784
WIRE 10960 -784 10880 -784
WIRE 11056 -752 11056 -848
WIRE 11056 -752 11008 -752
WIRE 3232 -736 3232 -784
WIRE 3552 -736 3232 -736
WIRE 3648 -736 3552 -736
WIRE 2880 -720 2880 -784
WIRE 3232 -720 3232 -736
WIRE 2880 -672 2816 -672
WIRE 3296 -672 3232 -672
WIRE 5968 -656 5968 -832
WIRE 3104 -640 2928 -640
WIRE 3184 -640 3104 -640
WIRE 6048 -608 5968 -608
WIRE -2992 -576 -3264 -576
WIRE -2688 -576 -2992 -576
WIRE 5824 -576 5728 -576
WIRE 5920 -576 5824 -576
WIRE 2880 -560 2880 -624
WIRE 2928 -560 2880 -560
WIRE 2960 -560 2928 -560
WIRE 3184 -560 3152 -560
WIRE 3232 -560 3232 -624
WIRE 3232 -560 3184 -560
WIRE -3264 -528 -3264 -576
WIRE -2688 -528 -2688 -576
WIRE 11008 -528 11008 -704
WIRE 5968 -512 5968 -560
WIRE 6048 -512 6048 -608
WIRE 6048 -512 5968 -512
WIRE 10880 -512 10832 -512
WIRE 10960 -512 10880 -512
WIRE 2880 -496 2880 -560
WIRE 3232 -496 3232 -560
WIRE 11056 -480 11056 -752
WIRE 11056 -480 11008 -480
WIRE 2816 -448 2816 -672
WIRE 2880 -448 2816 -448
WIRE 3296 -448 3296 -672
WIRE 3296 -448 3232 -448
WIRE 2992 -416 2992 -784
WIRE 2992 -416 2928 -416
WIRE 3184 -416 2992 -416
WIRE 5840 -416 5728 -416
WIRE 5968 -416 5968 -512
WIRE 5968 -416 5840 -416
WIRE 2816 -336 2816 -448
WIRE 2880 -336 2880 -400
WIRE 2880 -336 2816 -336
WIRE 3232 -336 3232 -400
WIRE 3296 -336 3296 -448
WIRE 3296 -336 3232 -336
WIRE -3264 -320 -3264 -448
WIRE -3184 -320 -3264 -320
WIRE -3120 -320 -3184 -320
WIRE -2688 -320 -2688 -448
WIRE -2688 -320 -2976 -320
WIRE 2880 -320 2880 -336
WIRE 3056 -320 2880 -320
WIRE 3232 -320 3232 -336
WIRE 3232 -320 3056 -320
WIRE -3264 -256 -3264 -320
WIRE -2688 -256 -2688 -320
WIRE -3264 -208 -3328 -208
WIRE -2624 -208 -2688 -208
WIRE 11008 -192 11008 -432
WIRE 11136 -192 11008 -192
WIRE 11232 -192 11136 -192
WIRE -3120 -176 -3120 -320
WIRE -3120 -176 -3216 -176
WIRE -2816 -176 -2864 -176
WIRE -2736 -176 -2816 -176
WIRE 6128 -176 6064 -176
WIRE 6224 -176 6128 -176
WIRE 6384 -176 6304 -176
WIRE 6432 -176 6384 -176
WIRE 5728 -112 5664 -112
WIRE 5792 -112 5728 -112
WIRE 11008 -112 11008 -192
WIRE -2736 -96 -2768 -96
WIRE -2688 -96 -2688 -160
WIRE -2688 -96 -2736 -96
WIRE 10752 -64 10704 -64
WIRE 11008 -64 10752 -64
WIRE -3264 -32 -3264 -160
WIRE -2688 -32 -2688 -96
WIRE 11232 -32 11232 -192
WIRE 11232 -32 11056 -32
WIRE 5792 0 5792 -112
WIRE -3328 16 -3328 -208
WIRE -3264 16 -3328 16
WIRE -2624 16 -2624 -208
WIRE -2624 16 -2688 16
WIRE -3120 48 -3120 -176
WIRE -3120 48 -3216 48
WIRE -2976 48 -2976 -320
WIRE -2864 48 -2976 48
WIRE -2736 48 -2864 48
WIRE 5632 48 5568 48
WIRE 5712 48 5632 48
WIRE 5888 48 5808 48
WIRE 5952 48 5888 48
WIRE 6432 48 6352 48
WIRE 6512 48 6432 48
WIRE 6672 48 6576 48
WIRE 6736 48 6672 48
WIRE -3328 128 -3328 16
WIRE -3264 128 -3264 64
WIRE -3264 128 -3328 128
WIRE -2688 128 -2688 64
WIRE -2624 128 -2624 16
WIRE -2624 128 -2688 128
WIRE -3264 144 -3264 128
WIRE -3024 144 -3264 144
WIRE -2864 144 -3024 144
WIRE -2688 144 -2688 128
WIRE -2688 144 -2864 144
WIRE 10896 176 10784 176
WIRE 11008 176 11008 -16
WIRE 11008 176 10896 176
WIRE 5712 208 5664 208
WIRE 5760 208 5760 48
WIRE 5760 208 5712 208
WIRE 11008 256 11008 176
WIRE 11104 304 11008 304
WIRE -2864 336 -2864 144
WIRE -2464 336 -2864 336
WIRE 10784 336 10784 176
WIRE 10960 336 10784 336
WIRE 11008 416 11008 352
WIRE 11104 416 11104 304
WIRE 11104 416 11008 416
WIRE 10896 688 10816 688
WIRE 11008 688 11008 416
WIRE 11008 688 10896 688
WIRE 6688 1280 6608 1280
WIRE 6768 1280 6688 1280
WIRE 7232 1280 7152 1280
WIRE 7312 1280 7232 1280
WIRE 7776 1280 7696 1280
WIRE 7856 1280 7776 1280
WIRE 8320 1280 8240 1280
WIRE 8400 1280 8320 1280
WIRE 6768 1344 6768 1280
WIRE 7312 1344 7312 1280
WIRE 7856 1344 7856 1280
WIRE 8400 1344 8400 1280
WIRE 6768 1504 6768 1424
WIRE 6768 1504 6704 1504
WIRE 7312 1504 7312 1424
WIRE 7312 1504 7248 1504
WIRE 7856 1504 7856 1424
WIRE 7856 1504 7792 1504
WIRE 8400 1504 8400 1424
WIRE 8400 1504 8336 1504
WIRE 6608 1568 6544 1568
WIRE 6704 1568 6704 1504
WIRE 6704 1568 6608 1568
WIRE 6832 1568 6832 1504
WIRE 6928 1568 6832 1568
WIRE 6992 1568 6928 1568
WIRE 7152 1568 7088 1568
WIRE 7248 1568 7248 1504
WIRE 7248 1568 7152 1568
WIRE 7376 1568 7376 1504
WIRE 7472 1568 7376 1568
WIRE 7536 1568 7472 1568
WIRE 7696 1568 7632 1568
WIRE 7792 1568 7792 1504
WIRE 7792 1568 7696 1568
WIRE 7920 1568 7920 1504
WIRE 8016 1568 7920 1568
WIRE 8080 1568 8016 1568
WIRE 8240 1568 8176 1568
WIRE 8336 1568 8336 1504
WIRE 8336 1568 8240 1568
WIRE 8464 1568 8464 1504
WIRE 8560 1568 8464 1568
WIRE 8624 1568 8560 1568
WIRE 4144 1632 3984 1632
WIRE 4304 1632 4144 1632
WIRE 4144 1728 3984 1728
WIRE 4304 1728 4144 1728
WIRE 4144 1824 3984 1824
WIRE 4304 1824 4144 1824
WIRE 4144 1920 3984 1920
WIRE 4304 1920 4144 1920
WIRE 6688 1952 6608 1952
WIRE 6768 1952 6688 1952
WIRE 7232 1952 7152 1952
WIRE 7312 1952 7232 1952
WIRE 7776 1952 7696 1952
WIRE 7856 1952 7776 1952
WIRE 8320 1952 8240 1952
WIRE 8400 1952 8320 1952
WIRE 6768 2016 6768 1952
WIRE 7312 2016 7312 1952
WIRE 7856 2016 7856 1952
WIRE 8400 2016 8400 1952
WIRE 4144 2112 3984 2112
WIRE 4304 2112 4144 2112
WIRE 6768 2176 6768 2096
WIRE 6768 2176 6704 2176
WIRE 7312 2176 7312 2096
WIRE 7312 2176 7248 2176
WIRE 7856 2176 7856 2096
WIRE 7856 2176 7792 2176
WIRE 8400 2176 8400 2096
WIRE 8400 2176 8336 2176
WIRE 4144 2208 3984 2208
WIRE 4304 2208 4144 2208
WIRE 6608 2240 6544 2240
WIRE 6704 2240 6704 2176
WIRE 6704 2240 6608 2240
WIRE 6832 2240 6832 2176
WIRE 6928 2240 6832 2240
WIRE 6992 2240 6928 2240
WIRE 7152 2240 7088 2240
WIRE 7248 2240 7248 2176
WIRE 7248 2240 7152 2240
WIRE 7376 2240 7376 2176
WIRE 7472 2240 7376 2240
WIRE 7536 2240 7472 2240
WIRE 7696 2240 7632 2240
WIRE 7792 2240 7792 2176
WIRE 7792 2240 7696 2240
WIRE 7920 2240 7920 2176
WIRE 8016 2240 7920 2240
WIRE 8080 2240 8016 2240
WIRE 8240 2240 8176 2240
WIRE 8336 2240 8336 2176
WIRE 8336 2240 8240 2240
WIRE 8464 2240 8464 2176
WIRE 8560 2240 8464 2240
WIRE 8624 2240 8560 2240
FLAG -3184 -320 vcasn
FLAG -2864 48 vbn
FLAG -2816 -176 vcasn
FLAG -2832 -1712 vbp
FLAG -3200 -1216 vcasp
FLAG -2736 -96 vdn1
FLAG -2752 -1536 vdp1
FLAG -3008 -1840 supplynode
FLAG 3104 -640 vcasn
FLAG 3184 -560 vd11
FLAG 2928 -560 vd10
FLAG 3136 -1472 vcasp
FLAG 3056 -1808 supplynode
FLAG 2944 -784 vbmirror
FLAG -2992 -576 supplynode
FLAG -2464 336 refnode
IOPIN -2464 336 BiDir
FLAG -3024 144 refnode
FLAG -3008 -992 refnode
FLAG 3056 -320 refnode
FLAG 4144 1632 vbmirror
FLAG 4144 1728 vx
FLAG 4144 1824 vy
FLAG 4144 1920 vz
FLAG 4304 1632 vbmirror
IOPIN 4304 1632 Out
FLAG 4304 1728 vx
IOPIN 4304 1728 Out
FLAG 4304 1824 vy
IOPIN 4304 1824 Out
FLAG 4304 1920 vz
IOPIN 4304 1920 Out
FLAG 2928 -1584 vy
FLAG 3184 -1584 vz
FLAG 4144 2112 vd10
FLAG 4304 2112 vd10
IOPIN 4304 2112 Out
FLAG 4144 2208 vd11
FLAG 4304 2208 vd11
IOPIN 4304 2208 Out
FLAG -2816 -1440 vcasp
FLAG 3248 -1088 supplynode
FLAG 3232 -912 refnode
FLAG 3552 -1264 vpgateOUT
FLAG 3552 -736 vngateOUT
FLAG 3504 -880 vnfcm
FLAG 2960 -1120 vpfcm
FLAG 6144 -1264 vpout
FLAG 6160 -832 vnout
FLAG 6304 -1264 vpout
IOPIN 6304 -1264 Out
FLAG 6304 -832 vnout
IOPIN 6304 -832 Out
FLAG 5840 -1680 supplynode
FLAG 5840 -416 refnode
FLAG 5824 -1520 vpgateIN
FLAG 5824 -576 vngateIN
FLAG -2480 -2032 supplynode
IOPIN -2480 -2032 BiDir
FLAG 3648 -1264 vpgateOUT
IOPIN 3648 -1264 Out
FLAG 3648 -736 vngateOUT
IOPIN 3648 -736 Out
FLAG 5728 -1520 vpgateIN
IOPIN 5728 -1520 In
FLAG 5728 -576 vngateIN
IOPIN 5728 -576 In
FLAG 48 -2816 refnode
FLAG 512 -2960 refnode
FLAG 272 -2672 vx
FLAG -32 -3088 vy
FLAG 592 -3088 vz
FLAG 64 -2048 vbn
FLAG 80 -1952 refnode
FLAG -256 -2784 vinneg
FLAG -320 -2784 vinneg
IOPIN -320 -2784 In
FLAG 816 -2928 vinpos
FLAG 864 -3024 vinpos
IOPIN 864 -3024 In
FLAG 3120 -1744 vbp
FLAG 6688 1280 vngateIN
FLAG 6608 1568 vm1cd
FLAG 6928 1568 vr1cp
FLAG 7232 1280 refnode
FLAG 7152 1568 vr1cp
FLAG 7472 1568 vm1cd
FLAG 7776 1280 vc1cp
FLAG 7696 1568 vm1cs
FLAG 8016 1568 vr1cn
FLAG 8320 1280 refnode
FLAG 8240 1568 vr1cn
FLAG 8560 1568 vm1cs
FLAG 6688 1952 vpgateIN
FLAG 6608 2240 vm2cs
FLAG 6928 2240 vr2cp
FLAG 7232 1952 supplynode
FLAG 7152 2240 vr2cp
FLAG 7472 2240 vm2cs
FLAG 7776 1952 vc2cp
FLAG 7696 2240 vm2cd
FLAG 8016 2240 vr2cn
FLAG 8320 1952 supplynode
FLAG 8240 2240 vr2cn
FLAG 8560 2240 vm2cd
FLAG 5728 -112 supplynode
FLAG 5712 208 refnode
FLAG 6672 48 vnout
FLAG 6128 -176 vr1cp
FLAG 6432 48 vc1cp
FLAG 5888 48 vm1cs
FLAG 5632 48 vm1cd
FLAG 6384 -176 vr1cn
FLAG 5680 -2096 refnode
FLAG 5728 -2416 supplynode
FLAG 6576 -2256 vpout
FLAG 6048 -2016 vr2cp
FLAG 6336 -2256 vc2cp
FLAG 5520 -2256 vm2cs
FLAG 5792 -2256 vm2cd
FLAG 6304 -2016 vr2cn
FLAG 10880 -784 vbp
FLAG 10880 -512 vcasp
FLAG 11136 -192 vnfcm
FLAG 10896 176 vnfcmfdbk
FLAG 10912 -912 supplynode
FLAG 10880 -1712 vcasn
FLAG 10880 -1488 vbn
FLAG 10896 -3024 supplynode
FLAG 10816 -2160 supplynode
FLAG 11152 -2192 vpfcm
FLAG 10896 688 refnode
FLAG 10896 -1392 refnode
FLAG 10752 -64 refnode
FLAG 10864 -2592 vpfcmfdbk
SYMBOL nmos4 -2736 -32 R0
WINDOW 123 56 100 Left 2
SYMATTR Value2 l={Ln_op} w={Wn_op} ad={hdifval*Wn_op} as={hdifval*Wn_op} pd={2*hdifval+Wn_op} ps={2*hdifval+Wn_op} nrs={hdifval/Wn_op} nrd={hdifval/Wn_op} m=1
SYMATTR InstName MN1
SYMATTR Value N_180
SYMBOL nmos4 -2736 -256 R0
WINDOW 123 56 100 Left 2
SYMATTR Value2 l={Lcasn_op} w={Wn_op} ad={hdifval*Wn_op} as={hdifval*Wn_op} pd={2*hdifval+Wn_op} ps={2*hdifval+Wn_op} nrd={hdifval/Wn_op} nrs={hdifval/Wn_op} m=1
SYMATTR InstName MN2
SYMATTR Value N_180
SYMBOL nmos4 -3216 -32 M0
WINDOW 123 56 100 Left 2
SYMATTR Value2 l={Ln_op} w={Wn_op} ad={hdifval*Wn_op} as={hdifval*Wn_op} pd={2*hdifval+Wn_op} ps={2*hdifval+Wn_op} nrs={hdifval/Wn_op} nrd={hdifval/Wn_op} m=1
SYMATTR InstName MNx1
SYMATTR Value N_180
SYMBOL nmos4 -3216 -256 M0
WINDOW 123 56 100 Left 2
SYMATTR Value2 l={Lnx_op} w={Wn_op} ad={hdifval*Wn_op} as={hdifval*Wn_op} pd={2*hdifval+Wn_op} ps={2*hdifval+Wn_op} nrs={hdifval/Wn_op} nrd={hdifval/Wn_op} m=1
SYMATTR InstName MNx2
SYMATTR Value N_180
SYMBOL pmos4 -2752 -1632 M180
WINDOW 123 56 100 Left 2
SYMATTR Value2 l={Lp_op} w={Wp_op} ad={hdifval*Wp_op} as={hdifval*Wp_op} pd={2*hdifval+Wp_op} ps={2*hdifval+Wp_op} nrs={hdifval/Wp_op} nrd={hdifval/Wp_op} m=1
SYMATTR InstName MP1
SYMATTR Value P_180
SYMBOL pmos4 -2752 -1360 M180
WINDOW 123 56 100 Left 2
SYMATTR Value2 l={Lcasp_op} w={Wp_op} ad={hdifval*Wp_op} as={hdifval*Wp_op} pd={2*hdifval+Wp_op} ps={2*hdifval+Wp_op} nrd={hdifval/Wp_op} nrs={hdifval/Wp_op} m=1
SYMATTR InstName MP2
SYMATTR Value P_180
SYMBOL pmos4 -3248 -1632 R180
WINDOW 123 56 100 Left 2
SYMATTR Value2 l={Lp_op} w={Wp_op} ad={hdifval*Wp_op} as={hdifval*Wp_op} pd={2*hdifval+Wp_op} ps={2*hdifval+Wp_op} nrs={hdifval/Wp_op} nrd={hdifval/Wp_op} m=1
SYMATTR InstName MPx1
SYMATTR Value P_180
SYMBOL pmos4 -3248 -1360 R180
WINDOW 123 56 100 Left 2
SYMATTR Value2 l={Lpx_op} w={Wp_op} ad={hdifval*Wp_op} as={hdifval*Wp_op} pd={2*hdifval+Wp_op} ps={2*hdifval+Wp_op} nrs={hdifval/Wp_op} nrd={hdifval/Wp_op} m=1
SYMATTR InstName MPx2
SYMATTR Value P_180
SYMBOL current -3264 -528 R0
WINDOW 123 0 0 Left 0
WINDOW 39 0 0 Left 0
SYMATTR InstName I1
SYMATTR Value {iunit}
SYMBOL current -2688 -528 R0
WINDOW 123 0 0 Left 0
WINDOW 39 0 0 Left 0
SYMATTR InstName I2
SYMATTR Value {iunit}
SYMBOL current -3296 -1120 R0
WINDOW 123 0 0 Left 0
WINDOW 39 0 0 Left 0
SYMATTR InstName I3
SYMATTR Value {iunit}
SYMBOL current -2704 -1120 R0
WINDOW 123 0 0 Left 0
WINDOW 39 0 0 Left 0
SYMATTR InstName I4
SYMATTR Value {iunit}
SYMBOL nmos4 3184 -496 R0
WINDOW 123 56 100 Left 2
SYMATTR Value2 l={Ln_op} w={Wn_op} ad={hdifval*Wn_op} as={hdifval*Wn_op} pd={2*hdifval+Wn_op} ps={2*hdifval+Wn_op} nrd={hdifval/Wn_op} nrs={hdifval/Wn_op} m={Mx_op}
SYMATTR InstName M11
SYMATTR Value N_180
SYMBOL nmos4 3184 -720 R0
WINDOW 123 56 100 Left 2
SYMATTR Value2 l={Lcasn_op} w={Wn_op} ad={hdifval*Wn_op} as={hdifval*Wn_op} pd={2*hdifval+Wn_op} ps={2*hdifval+Wn_op} nrs={hdifval/Wn_op} nrd={hdifval/Wn_op} m={Mx_op}
SYMATTR InstName M9
SYMATTR Value N_180
SYMBOL nmos4 2928 -496 M0
WINDOW 123 56 100 Left 2
SYMATTR Value2 l={Ln_op} w={Wn_op} ad={hdifval*Wn_op} as={hdifval*Wn_op} pd={2*hdifval+Wn_op} ps={2*hdifval+Wn_op} nrd={hdifval/Wn_op} nrs={hdifval/Wn_op} m={Mx_op}
SYMATTR InstName M10
SYMATTR Value N_180
SYMBOL nmos4 2928 -720 M0
WINDOW 123 56 100 Left 2
SYMATTR Value2 l={Lcasn_op} w={Wn_op} ad={hdifval*Wn_op} as={hdifval*Wn_op} pd={2*hdifval+Wn_op} ps={2*hdifval+Wn_op} nrs={hdifval/Wn_op} nrd={hdifval/Wn_op} m={Mx_op}
SYMATTR InstName M8
SYMATTR Value N_180
SYMBOL pmos4 3184 -1664 M180
WINDOW 123 56 100 Left 2
SYMATTR Value2 l={Lp_op} w={Wp_op} ad={hdifval*Wp_op} as={hdifval*Wp_op} pd={2*hdifval+Wp_op} ps={2*hdifval+Wp_op} nrs={hdifval/Wp_op} nrd={hdifval/Wp_op} m={M45_op}
SYMATTR InstName M5
SYMATTR Value P_180
SYMBOL pmos4 3184 -1392 M180
WINDOW 123 56 100 Left 2
SYMATTR Value2 l={Lcasp_op} w={Wp_op} ad={hdifval*Wp_op} as={hdifval*Wp_op} pd={2*hdifval+Wp_op} ps={2*hdifval+Wp_op} nrd={hdifval/Wp_op} nrs={hdifval/Wp_op} m={Mx_op}
SYMATTR InstName M7
SYMATTR Value P_180
SYMBOL pmos4 2928 -1664 R180
WINDOW 123 56 100 Left 2
SYMATTR Value2 l={Lp_op} w={Wp_op} ad={hdifval*Wp_op} as={hdifval*Wp_op} pd={2*hdifval+Wp_op} ps={2*hdifval+Wp_op} nrs={hdifval/Wp_op} nrd={hdifval/Wp_op} m={M45_op}
SYMATTR InstName M4
SYMATTR Value P_180
SYMBOL pmos4 2928 -1392 R180
WINDOW 123 56 100 Left 2
SYMATTR Value2 l={Lcasp_op} w={Wp_op} ad={hdifval*Wp_op} as={hdifval*Wp_op} pd={2*hdifval+Wp_op} ps={2*hdifval+Wp_op} nrd={hdifval/Wp_op} nrs={hdifval/Wp_op} m={Mx_op}
SYMATTR InstName M6
SYMATTR Value P_180
SYMBOL nmos4 3440 -960 M0
WINDOW 123 56 100 Left 2
SYMATTR Value2 l={Lnfcm_op} w={Wnfcm_op} ad={hdifval*Wnfcm_op} as={hdifval*Wnfcm_op} pd={2*hdifval+Wnfcm_op} ps={2*hdifval+Wnfcm_op} nrd={hdifval/Wnfcm_op} nrs={hdifval/Wnfcm_op} m={Mnfcm_op}
SYMATTR InstName M3fcm
SYMATTR Value N_180
SYMBOL pmos4 3024 -1040 M180
WINDOW 123 56 100 Left 2
SYMATTR Value2 l={Lpfcm_op} w={Wpfcm_op} ad={hdifval*Wpfcm_op} as={hdifval*Wpfcm_op} pd={2*hdifval+Wpfcm_op} ps={2*hdifval+Wpfcm_op} nrd={hdifval/Wpfcm_op} nrs={hdifval/Wpfcm_op} m={Mpfcm_op}
SYMATTR InstName M4fcm
SYMATTR Value P_180
SYMBOL nmos4 5920 -656 R0
WINDOW 123 56 100 Left 2
SYMATTR Value2 l={Lnout_op} w={Wnout_op} ad={hdifval*Wnout_op} as={hdifval*Wnout_op} pd={2*hdifval+Wnout_op} ps={2*hdifval+Wnout_op} nrd={hdifval/Wnout_op} nrs={hdifval/Wnout_op} m={Mnout_op}
SYMATTR InstName M1out
SYMATTR Value N_180
SYMBOL pmos4 5920 -1440 M180
WINDOW 123 56 100 Left 2
SYMATTR Value2 l={Lpout_op} w={Wpout_op} ad={hdifval*Wpout_op} as={hdifval*Wpout_op} pd={2*hdifval+Wpout_op} ps={2*hdifval+Wpout_op} nrd={hdifval/Wpout_op} nrs={hdifval/Wpout_op} m={Mpout_op}
SYMATTR InstName M2out
SYMATTR Value P_180
SYMBOL nmos4 -144 -2864 R0
WINDOW 123 56 100 Left 2
SYMATTR Value2 l={L1_op} w={W1_op} ad={hdifval*W1_op} as={hdifval*W1_op} pd={2*hdifval+W1_op} ps={2*hdifval+W1_op} nrd={hdifval/W1_op} nrs={hdifval/W1_op} m={M1_op}
SYMATTR InstName M1
SYMATTR Value N_180
SYMBOL nmos4 704 -3008 M0
WINDOW 123 56 100 Left 2
SYMATTR Value2 l={L1_op} w={W1_op} ad={hdifval*W1_op} as={hdifval*W1_op} pd={2*hdifval+W1_op} ps={2*hdifval+W1_op} nrd={hdifval/W1_op} nrs={hdifval/W1_op} m={M1_op}
SYMATTR InstName M2
SYMATTR Value N_180
SYMBOL nmos4 144 -2128 R0
WINDOW 123 56 100 Left 2
SYMATTR Value2 l={Ln_op} w={Wn_op} ad={hdifval*Wn_op} as={hdifval*Wn_op} pd={2*hdifval+Wn_op} ps={2*hdifval+Wn_op} nrs={hdifval/Wn_op} nrd={hdifval/Wn_op} m={M3_op}
SYMATTR InstName M3
SYMATTR Value N_180
SYMBOL voltage 6768 1328 R0
WINDOW 123 0 0 Left 0
WINDOW 39 0 0 Left 0
SYMATTR InstName V1
SYMATTR Value 0
SYMBOL voltage 7312 1328 R0
WINDOW 123 0 0 Left 0
WINDOW 39 0 0 Left 0
SYMATTR InstName V2
SYMATTR Value 0
SYMBOL voltage 7856 1328 R0
WINDOW 123 0 0 Left 0
WINDOW 39 0 0 Left 0
SYMATTR InstName V3
SYMATTR Value 0
SYMBOL voltage 8400 1328 R0
WINDOW 123 0 0 Left 0
WINDOW 39 0 0 Left 0
SYMATTR InstName V4
SYMATTR Value 0
SYMBOL voltage 6768 2000 R0
WINDOW 123 0 0 Left 0
WINDOW 39 0 0 Left 0
SYMATTR InstName V5
SYMATTR Value 0
SYMBOL voltage 7312 2000 R0
WINDOW 123 0 0 Left 0
WINDOW 39 0 0 Left 0
SYMATTR InstName V6
SYMATTR Value 0
SYMBOL voltage 7856 2000 R0
WINDOW 123 0 0 Left 0
WINDOW 39 0 0 Left 0
SYMATTR InstName V7
SYMATTR Value 0
SYMBOL voltage 8400 2000 R0
WINDOW 123 0 0 Left 0
WINDOW 39 0 0 Left 0
SYMATTR InstName V8
SYMATTR Value 0
SYMBOL cap 6576 32 R90
WINDOW 0 0 32 VBottom 2
WINDOW 3 32 32 VTop 2
SYMATTR InstName C1c
SYMATTR Value {C1c_op}
SYMBOL nmos4 5712 0 M90
WINDOW 123 56 100 Left 2
SYMATTR Value2 l={Lnc_op} w={Wnc_op} ad={hdifval*Wnc_op} as={hdifval*Wnc_op} pd={2*hdifval+Wnc_op} ps={2*hdifval+Wnc_op} nrd={hdifval/Wnc_op} nrs={hdifval/Wnc_op} m={Mnc_op}
SYMATTR InstName M1c
SYMATTR Value N_180
SYMBOL res 6320 -192 R90
WINDOW 0 0 56 VBottom 2
WINDOW 3 32 56 VTop 2
SYMATTR InstName R1c
SYMATTR Value {R1c_op}
SYMBOL cap 6480 -2272 R90
WINDOW 0 0 32 VBottom 2
WINDOW 3 32 32 VTop 2
SYMATTR InstName C2c
SYMATTR Value {C2c_op}
SYMBOL res 6240 -2032 R90
WINDOW 0 0 56 VBottom 2
WINDOW 3 32 56 VTop 2
SYMATTR InstName R2c
SYMATTR Value {R2c_op}
SYMBOL pmos4 5712 -2208 M270
WINDOW 123 56 100 Left 2
SYMATTR Value2 l={Lpc_op} w={Wpc_op} ad={hdifval*Wpc_op} as={hdifval*Wpc_op} pd={2*hdifval+Wpc_op} ps={2*hdifval+Wpc_op} nrd={hdifval/Wpc_op} nrs={hdifval/Wpc_op} m={Mpc_op}
SYMATTR InstName M2c
SYMATTR Value P_180
SYMBOL nmos4 10960 256 R0
WINDOW 123 56 0 Left 2
SYMATTR Value2 l={Lnout_op} w={Wnout_op} ad={hdifval*Wnout_op} as={hdifval*Wnout_op} pd={2*hdifval+Wnout_op} ps={2*hdifval+Wnout_op} nrd={hdifval/Wnout_op} nrs={hdifval/Wnout_op} m={MnoutR_op}
SYMATTR InstName M12
SYMATTR Value N_180
SYMBOL pmos4 10960 -2512 M180
WINDOW 123 56 100 Left 2
SYMATTR Value2 l={Lpout_op} w={Wpout_op} ad={hdifval*Wpout_op} as={hdifval*Wpout_op} pd={2*hdifval+Wpout_op} ps={2*hdifval+Wpout_op} nrd={hdifval/Wpout_op} nrs={hdifval/Wpout_op} m={MpoutR_op}
SYMATTR InstName M13
SYMATTR Value P_180
SYMBOL nmos4 11056 -112 M0
WINDOW 123 56 0 Left 2
SYMATTR Value2 l={Lnfcm_op} w={Wnfcm_op} ad={hdifval*Wnfcm_op} as={hdifval*Wnfcm_op} pd={2*hdifval+Wnfcm_op} ps={2*hdifval+Wnfcm_op} nrd={hdifval/Wnfcm_op} nrs={hdifval/Wnfcm_op} m={MnfcmR_op}
SYMATTR InstName M14
SYMATTR Value N_180
SYMBOL pmos4 11056 -2112 R180
WINDOW 123 56 100 Left 2
SYMATTR Value2 l={Lpfcm_op} w={Wpfcm_op} ad={hdifval*Wpfcm_op} as={hdifval*Wpfcm_op} pd={2*hdifval+Wpfcm_op} ps={2*hdifval+Wpfcm_op} nrd={hdifval/Wpfcm_op} nrs={hdifval/Wpfcm_op} m={MpfcmR_op}
SYMATTR InstName M15
SYMATTR Value P_180
SYMBOL pmos4 10960 -704 M180
WINDOW 123 56 100 Left 2
SYMATTR Value2 l={Lp_op} w={Wp_op} ad={hdifval*Wp_op} as={hdifval*Wp_op} pd={2*hdifval+Wp_op} ps={2*hdifval+Wp_op} nrd={hdifval/Wp_op} nrs={hdifval/Wp_op} m={Mb1_op}
SYMATTR InstName M16
SYMATTR Value P_180
SYMBOL pmos4 10960 -432 M180
WINDOW 123 56 100 Left 2
SYMATTR Value2 l={Lcasp_op} w={Wp_op} ad={hdifval*Wp_op} as={hdifval*Wp_op} pd={2*hdifval+Wp_op} ps={2*hdifval+Wp_op} nrd={hdifval/Wp_op} nrs={hdifval/Wp_op} m={Mb1_op}
SYMATTR InstName M17
SYMATTR Value P_180
SYMBOL nmos4 10960 -1568 R0
WINDOW 123 56 100 Left 2
SYMATTR Value2 l={Ln_op} w={Wn_op} ad={hdifval*Wn_op} as={hdifval*Wn_op} pd={2*hdifval+Wn_op} ps={2*hdifval+Wn_op} nrd={hdifval/Wn_op} nrs={hdifval/Wn_op} m={Mb2_op}
SYMATTR InstName M18
SYMATTR Value N_180
SYMBOL nmos4 10960 -1792 R0
WINDOW 123 56 100 Left 2
SYMATTR Value2 l={Lcasn_op} w={Wn_op} ad={hdifval*Wn_op} as={hdifval*Wn_op} pd={2*hdifval+Wn_op} ps={2*hdifval+Wn_op} nrd={hdifval/Wn_op} nrs={hdifval/Wn_op} m={Mb2_op}
SYMATTR InstName M19
SYMATTR Value N_180
TEXT 928 432 Left 2 !;hdifval param -- hdifval MUST EQUAL 0.25u -- DO NOT CHANGE THIS VALUE\n.param hdifval=0.25u\n \n;diff pair params\n.param W1_op=8.00u L1_op=0.30u M1_op=1\n;.param W1_op=3.00u L1_op=0.30u M1_op=10\n \n;M3 through M10 device multiplier params\n;.param M3_op=100 M45_op=120 Mx_op=70\n.param M3_op=30 M45_op=31 Mx_op=16\n \n;output device params, M1out, M5outR, M2out, M7outR\n.param Wnout_op=1.85u Lnout_op=0.30u Mnout_op=37 MnoutR_op=1\n.param Wpout_op=10.00u Lpout_op=0.30u Mpout_op=37 MpoutR_op=1\n \n;floating current mirror (FCM) params, M3fcm, M6fcmR, M4fcm, M8fcmR\n.param Wnfcm_op=0.63u Lnfcm_op=0.30u Mnfcm_op={Mx_op}/2 MnfcmR_op=1\n.param Wpfcm_op=3.04u Lpfcm_op=0.30u Mpfcm_op={Mx_op}/2 MpfcmR_op=1\n.param Mb1_op=1 Mb2_op=1\n \n;output compensation network params for C1c, R1c, M1c, C2c, R2c, M2c\n.param C1c_op=700f\n.param R1c_op=1200\n.param Wnc_op=1.10u Lnc_op=0.30u Mnc_op=1\n.param C2c_op=1000f\n.param R2c_op=3000\n.param Wpc_op=0.90u Lpc_op=0.30u Mpc_op=1\n \n;pmos current mirror params\n.param Wp_op=8.08u Lp_op=0.30u Lcasp_op=0.30u Lpx_op=0.98u\n \n;nmos current mirror params\n.param Wn_op=1.57u Ln_op=0.30u Lcasn_op=0.30u Lnx_op=0.64u
TEXT 3320 -1808 Left 2 ;Ip = Iunit*M45_op
TEXT 3320 -320 Left 2 ;Ix = Iunit*Mx_op
TEXT 928 1752 Left 2 ;hdifval should be set to the value HDIF in your model file that you are using for the project;\ndo not change the hdifval parameter value;\n \nwith the exception of hdifval (don't change this value), you will only make changes to the \nparameters above and the SW1 and SW2 switch settings; you are not to make any other \nchanges to this schematic; see the additional guidelines below;\n \n(M3_op/2) + Mx_op MUST EQUAL M45_op;  note that M3_op must be even;\n \nMx_op should be even to help make the FCM replica bias circuit design go more smoothly;\n \nmin/max device length: {0.30um, 10.00um}; min/max device width: {0.30um, 100.00um};\n \nenter all device lengths and widths with engineering prefix u (for micron, i.e., micrometer);\n \nround all lengths and widths to 2 decimal places of precision in units of um (e.g., W=13.167um \nshould be rounded to 13.17um; L=3.831um should be rounded to 3.83um); you cannot use\nwidths or lengths outside of the stated bounds above or with more than two decimal places\nof precision;\n \nexample: suppose you need a device with width W=120um; since Wmax=100.00um, you'll need \nto break the device up into smaller widths in parallel and select an appropriate multiplier; e.g., \nW=30.00um with m=4, or W=40.00um with m=3, and so on;\n \nC1c_op and C2c_op should be in f with zero decimal places of precision; e.g., 723f, 1298f, etc.;\n \ndon't forget: in the fdbk_filter_schematic.asc schematic file, you also need to set the values \nof the Rfb_op and Cfb_op parameters;
TEXT 3832 1392 Left 2 ;these signals are routed out of this block for debugging purposes
TEXT 5984 -1064 Left 2 ;vpout and vnout are shorted together at the testbench level; they are \nseparated here to allow for output device currents to be measured
TEXT -3248 -776 Left 2 ;don't change these current source values,\ni.e., don't change the value of parameter iunit
TEXT -4800 -792 Left 2 ;in practical circuit design settings, the 4 ideal current source currents would\nbe provided by a reference generation circuit; for this project, you are not \nresponsible for the design of a reference generator, so you will simply use\nthe 4 ideal current sources to generate all the other needed current sources
TEXT -2672 -1864 Left 2 ;Iunit
TEXT -2664 176 Left 2 ;Iunit
TEXT 4384 -1336 Left 2 ;vpgateOUT and vpgateIN are shorted together at the testbench level;\nthey are separated to allow for measurement of M2out gate current,\nthe small-signal output resistance seen at the gate of M2out, and the\nsmall-signal gain to the gate of M2out
TEXT 4392 -792 Left 2 ;vngateOUT and vngateIN are shorted together at the testbench level;\nthey are separated to allow for measurement of M1out gate current,\nthe small-signal output resistance seen at the gate of M1out, and the\nsmall-signal gain to the gate of M1out
TEXT 272 -1944 Left 2 ;Itail = Iunit*M3_op
TEXT -2528 -768 Left 2 !.param iunit=10u
TEXT 6728 1480 Left 2 ;X
TEXT 6792 1480 Left 2 ;Y
TEXT 6672 1152 Left 2 ;SW1_a
TEXT 7208 1152 Left 2 ;SW1_b
TEXT 7744 1152 Left 2 ;SW1_c
TEXT 8280 1152 Left 2 ;SW1_d
TEXT 7272 1480 Left 2 ;X
TEXT 7336 1480 Left 2 ;Y
TEXT 7816 1480 Left 2 ;X
TEXT 7880 1480 Left 2 ;Y
TEXT 8360 1480 Left 2 ;X
TEXT 8424 1480 Left 2 ;Y
TEXT 6728 2152 Left 2 ;X
TEXT 6792 2152 Left 2 ;Y
TEXT 6672 1824 Left 2 ;SW2_a
TEXT 7208 1824 Left 2 ;SW2_b
TEXT 7744 1824 Left 2 ;SW2_c
TEXT 8280 1824 Left 2 ;SW2_d
TEXT 7272 2152 Left 2 ;X
TEXT 7336 2152 Left 2 ;Y
TEXT 7816 2152 Left 2 ;X
TEXT 7880 2152 Left 2 ;Y
TEXT 8360 2152 Left 2 ;X
TEXT 8424 2152 Left 2 ;Y